
**** 10/07/22 00:25:23 ******* PSpice 17.4.0 (Nov 2018) ******* ID# 0 ********

 ** Profile: "SCHEMATIC1-B1"  [ D:\MDDT\LAB1\b1-pspicefiles\schematic1\b1.sim ] 


 ****     CIRCUIT DESCRIPTION


******************************************************************************




** Creating circuit file "B1.cir" 
** WARNING: THIS AUTOMATICALLY GENERATED FILE MAY BE OVERWRITTEN BY SUBSEQUENT SIMULATIONS

*Libraries: 
* Profile Libraries :
* Local Libraries :
* From [PSPICE NETLIST] section of C:\cds_spb_home\cdssetup\OrCAD_PSpiceTIPSpice_Install\17.4.0\PSpice.ini file:
.lib "nom_pspti.lib" 
.lib "nom.lib" 

*Analysis directives: 
.OPTIONS ADVCONV
.OPTIONS FILEMODELSEARCH
.PROBE64 V(alias(*)) I(alias(*)) W(alias(*)) D(alias(*)) NOISE(alias(*)) 
.INC "..\SCHEMATIC1.net" 



**** INCLUDING SCHEMATIC1.net ****
* source B1
R_R6         N04933 N04866  13 TC=0,0 
R_Ra         N04873 N04866  40/9 TC=0,0 
R_Rb         N04913 N04873  80/9 TC=0,0 
R_Rc         N04917 N04873  100/27 TC=0,0 
R_R4         N04921 N04913  30 TC=0,0 
R_R5         N04921 N04917  50 TC=0,0 
V_V1         N04933 N04921 100Vdc

**** RESUMING B1.cir ****
.END

ERROR(ORPSIM-15142): Node N04933 is floating

ERROR(ORPSIM-15142): Node N04866 is floating

ERROR(ORPSIM-15142): Node N04873 is floating

ERROR(ORPSIM-15142): Node N04913 is floating

ERROR(ORPSIM-15142): Node N04917 is floating

ERROR(ORPSIM-15142): Node N04921 is floating
