
**** 10/07/22 01:07:44 ******* PSpice 17.4.0 (Nov 2018) ******* ID# 0 ********

 ** Profile: "SCHEMATIC1-B1"  [ D:\MDDT\LAB1\b1-pspicefiles\schematic1\b1.sim ] 


 ****     CIRCUIT DESCRIPTION


******************************************************************************




** Creating circuit file "B1.cir" 
** WARNING: THIS AUTOMATICALLY GENERATED FILE MAY BE OVERWRITTEN BY SUBSEQUENT SIMULATIONS

*Libraries: 
* Profile Libraries :
* Local Libraries :
* From [PSPICE NETLIST] section of C:\cds_spb_home\cdssetup\OrCAD_PSpiceTIPSpice_Install\17.4.0\PSpice.ini file:
.lib "nom_pspti.lib" 
.lib "nom.lib" 

*Analysis directives: 
.OPTIONS ADVCONV
.OPTIONS FILEMODELSEARCH
.PROBE64 V(alias(*)) I(alias(*)) W(alias(*)) D(alias(*)) NOISE(alias(*)) 
.INC "..\SCHEMATIC1.net" 



**** INCLUDING SCHEMATIC1.net ****
* source B1
R_R1         N06354 N06345  1 TC=0,0 
R_R2         N06391 N06345  1.43 TC=0,0 
V_V1         N06354 N06466 30Vdc
V_V2         N06345 N06387 8Vdc
X_F1    N06391 N06466 N06391 N06387 SCHEMATIC1_F1 

.subckt SCHEMATIC1_F1 1 2 3 4  
F_F1         3 4 VF_F1 0.4
VF_F1         1 2 0V
.ends SCHEMATIC1_F1

**** RESUMING B1.cir ****
.END

ERROR(ORPSIM-15142): Node N06354 is floating

ERROR(ORPSIM-15142): Node N06345 is floating

ERROR(ORPSIM-15142): Node N06391 is floating

ERROR(ORPSIM-15142): Node N06466 is floating

ERROR(ORPSIM-15142): Node N06387 is floating
